4fnz_chainA
     RDKit          2D

  5  4  0  0  0  0  0  0  0  0999 V2000
    1.5000   -0.0000    0.0000 O   0  0  0  0  0  0  0  0  0  0  0  0
    0.0000   -0.0000    0.0000 C   0  0  0  0  0  0  0  0  0  0  0  0
   -1.5000    0.0000    0.0000 F   0  0  0  0  0  0  0  0  0  0  0  0
    0.0000    1.5000    0.0000 F   0  0  0  0  0  0  0  0  0  0  0  0
   -0.0000   -1.5000    0.0000 F   0  0  0  0  0  0  0  0  0  0  0  0
  1  2  1  0
  2  3  1  0
  2  4  1  0
  2  5  1  0
M  END
>  <kinase>  (1) 
ALK

>  <family>  (1) 
ALK

>  <group>  (1) 
TK

>  <complex_pdb>  (1) 
4fnz

>  <ligand_pdb>  (1) 
NZF

>  <alt>  (1) 
 

>  <chain>  (1) 
A

>  <atom.prop.subpocket>  (1) 
B2 B2 B2 B2 B2 B1

>  <atom.prop.environment>  (1) 
3 3 3 3 3 na

$$$$
4joa_altA_chainA
     RDKit          2D

  8  8  0  0  0  0  0  0  0  0999 V2000
    3.0000    0.0000    0.0000 F   0  0  0  0  0  0  0  0  0  0  0  0
    1.5000   -0.0000    0.0000 C   0  0  0  0  0  0  0  0  0  0  0  0
    0.7500   -1.2990    0.0000 C   0  0  0  0  0  0  0  0  0  0  0  0
    0.7500    1.2990    0.0000 C   0  0  0  0  0  0  0  0  0  0  0  0
   -0.7500    1.2990    0.0000 C   0  0  0  0  0  0  0  0  0  0  0  0
   -1.5000    0.0000    0.0000 C   0  0  0  0  0  0  0  0  0  0  0  0
   -3.0000    0.0000    0.0000 F   0  0  0  0  0  0  0  0  0  0  0  0
   -0.7500   -1.2990    0.0000 C   0  0  0  0  0  0  0  0  0  0  0  0
  1  2  1  0
  2  3  2  0
  2  4  1  0
  3  8  1  0
  4  5  2  0
  5  6  1  0
  6  7  1  0
  6  8  2  0
M  END
>  <kinase>  (2) 
ALK

>  <family>  (2) 
ALK

>  <group>  (2) 
TK

>  <complex_pdb>  (2) 
4joa

>  <ligand_pdb>  (2) 
3DK

>  <alt>  (2) 
A

>  <chain>  (2) 
A

>  <atom.prop.subpocket>  (2) 
B2 B2 B2 B2 B2 B2 B2 B2 B2 B2 B2 GA

>  <atom.prop.environment>  (2) 
16 16 16 16 16 16 16 16 16 16 16 na

$$$$
3m11_chainA
     RDKit          2D

 10 10  0  0  0  0  0  0  0  0999 V2000
   -3.7985   -0.4910    0.0000 N   0  0  0  0  0  0  0  0  0  0  0  0
   -2.3812    0.0000    0.0000 C   0  0  0  0  0  0  0  0  0  0  0  0
   -1.2473   -0.9820    0.0000 N   0  0  0  0  0  0  0  0  0  0  0  0
    0.1701   -0.4910    0.0000 C   0  0  0  0  0  0  0  0  0  0  0  0
    0.4536    0.9820    0.0000 C   0  0  0  0  0  0  0  0  0  0  0  0
    1.8709    1.4730    0.0000 C   0  0  0  0  0  0  0  0  0  0  0  0
    3.0048    0.4910    0.0000 C   0  0  0  0  0  0  0  0  0  0  0  0
    2.7213   -0.9820    0.0000 C   0  0  0  0  0  0  0  0  0  0  0  0
    1.3040   -1.4730    0.0000 C   0  0  0  0  0  0  0  0  0  0  0  0
   -2.0977    1.4730    0.0000 O   0  0  0  0  0  0  0  0  0  0  0  0
  1  2  1  0
  2  3  1  0
  2 10  2  0
  3  4  1  0
  4  5  2  0
  4  9  1  0
  5  6  1  0
  6  7  2  0
  7  8  1  0
  8  9  2  0
M  END
>  <kinase>  (3) 
AurA

>  <family>  (3) 
Aur

>  <group>  (3) 
Other

>  <complex_pdb>  (3) 
3m11

>  <ligand_pdb>  (3) 
AKI

>  <alt>  (3) 
 

>  <chain>  (3) 
A

>  <atom.prop.subpocket>  (3) 
B2 B2 B2 B2 B2 B2 B2 B2 B2 B2 B2 B2 B2 B2 B2 B2 B2 GA

>  <atom.prop.environment>  (3) 
5 5 1 5 5 16 16 16 16 16 16 16 16 16 16 16 1 na

$$$$
4uyn_chainA
     RDKit          2D

  9 10  0  0  0  0  0  0  0  0999 V2000
   -2.6008   -0.0000    0.0000 C   0  0  0  0  0  0  0  0  0  0  0  0
   -1.7191   -1.2135    0.0000 N   0  0  0  0  0  0  0  0  0  0  0  0
   -0.2925   -0.7500    0.0000 C   0  0  0  0  0  0  0  0  0  0  0  0
    1.0065   -1.5000    0.0000 C   0  0  0  0  0  0  0  0  0  0  0  0
    2.3055   -0.7500    0.0000 C   0  0  0  0  0  0  0  0  0  0  0  0
    2.3055    0.7500    0.0000 C   0  0  0  0  0  0  0  0  0  0  0  0
    1.0065    1.5000    0.0000 C   0  0  0  0  0  0  0  0  0  0  0  0
   -0.2925    0.7500    0.0000 C   0  0  0  0  0  0  0  0  0  0  0  0
   -1.7191    1.2135    0.0000 N   0  0  0  0  0  0  0  0  0  0  0  0
  1  2  2  0
  1  9  1  0
  2  3  1  0
  3  4  2  0
  3  8  1  0
  4  5  1  0
  5  6  2  0
  6  7  1  0
  7  8  2  0
  8  9  1  0
M  END
>  <kinase>  (4) 
AurA

>  <family>  (4) 
Aur

>  <group>  (4) 
Other

>  <complex_pdb>  (4) 
4uyn

>  <ligand_pdb>  (4) 
Y3M

>  <alt>  (4) 
 

>  <chain>  (4) 
A

>  <atom.prop.subpocket>  (4) 
B2 B2 B2 B2 B2 B2 B2 B2 B2 B2 B2 B2 B2 B2 GA

>  <atom.prop.environment>  (4) 
14 14 14 14 14 14 14 14 14 14 14 14 14 14 na

$$$$
4uzd_chainB
     RDKit          2D

  9 10  0  0  0  0  0  0  0  0999 V2000
   -2.3055   -0.7500    0.0000 C   0  0  0  0  0  0  0  0  0  0  0  0
   -2.3055    0.7500    0.0000 C   0  0  0  0  0  0  0  0  0  0  0  0
   -1.0065    1.5000    0.0000 C   0  0  0  0  0  0  0  0  0  0  0  0
   -1.0065   -1.5000    0.0000 C   0  0  0  0  0  0  0  0  0  0  0  0
    0.2925   -0.7500    0.0000 C   0  0  0  0  0  0  0  0  0  0  0  0
    0.2925    0.7500    0.0000 C   0  0  0  0  0  0  0  0  0  0  0  0
    1.7191    1.2135    0.0000 N   0  0  0  0  0  0  0  0  0  0  0  0
    2.6008   -0.0000    0.0000 C   0  0  0  0  0  0  0  0  0  0  0  0
    1.7191   -1.2135    0.0000 N   0  0  0  0  0  0  0  0  0  0  0  0
  1  2  2  0
  1  4  1  0
  2  3  1  0
  3  6  2  0
  4  5  2  0
  5  6  1  0
  5  9  1  0
  6  7  1  0
  7  8  2  0
  8  9  1  0
M  END
>  <kinase>  (5) 
AurA

>  <family>  (5) 
Aur

>  <group>  (5) 
Other

>  <complex_pdb>  (5) 
4uzd

>  <ligand_pdb>  (5) 
QMN

>  <alt>  (5) 
 

>  <chain>  (5) 
B

>  <atom.prop.subpocket>  (5) 
B2 B2 B2 B2 B2 B2 B2 B2 B2 B2 B2 B2 B2 B2 GA

>  <atom.prop.environment>  (5) 
14 14 14 14 14 14 14 14 14 14 14 14 14 14 na

$$$$
4fc0_chainB
     RDKit          2D

  7  7  0  0  0  0  0  0  0  0999 V2000
    0.3214   -1.2990    0.0000 C   0  0  0  0  0  0  0  0  0  0  0  0
   -1.1786   -1.2990    0.0000 C   0  0  0  0  0  0  0  0  0  0  0  0
   -1.9286    0.0000    0.0000 C   0  0  0  0  0  0  0  0  0  0  0  0
   -1.1786    1.2990    0.0000 C   0  0  0  0  0  0  0  0  0  0  0  0
    0.3214    1.2990    0.0000 C   0  0  0  0  0  0  0  0  0  0  0  0
    1.0714   -0.0000    0.0000 C   0  0  0  0  0  0  0  0  0  0  0  0
    2.5714    0.0000    0.0000 Cl  0  0  0  0  0  0  0  0  0  0  0  0
  1  2  2  0
  1  6  1  0
  2  3  1  0
  3  4  2  0
  4  5  1  0
  5  6  2  0
  6  7  1  0
M  END
>  <kinase>  (6) 
BRAF

>  <family>  (6) 
RAF

>  <group>  (6) 
TKL

>  <complex_pdb>  (6) 
4fc0

>  <ligand_pdb>  (6) 
0T2

>  <alt>  (6) 
 

>  <chain>  (6) 
B

>  <atom.prop.subpocket>  (6) 
B2 B2 B2 B2 B2 B2 B2 B2 B2 B2 B1 GA

>  <atom.prop.environment>  (6) 
16 16 16 16 16 16 16 16 16 16 na na

$$$$
4ksp_chainB
     RDKit          2D

  6  6  0  0  0  0  0  0  0  0999 V2000
    1.5000    0.0000    0.0000 C   0  0  0  0  0  0  0  0  0  0  0  0
    0.7500   -1.2990    0.0000 C   0  0  0  0  0  0  0  0  0  0  0  0
    0.7500    1.2990    0.0000 C   0  0  0  0  0  0  0  0  0  0  0  0
   -0.7500    1.2990    0.0000 C   0  0  0  0  0  0  0  0  0  0  0  0
   -0.7500   -1.2990    0.0000 C   0  0  0  0  0  0  0  0  0  0  0  0
   -1.5000    0.0000    0.0000 C   0  0  0  0  0  0  0  0  0  0  0  0
  1  2  2  0
  1  3  1  0
  2  5  1  0
  3  4  2  0
  4  6  1  0
  5  6  2  0
M  END
>  <kinase>  (7) 
BRAF

>  <family>  (7) 
RAF

>  <group>  (7) 
TKL

>  <complex_pdb>  (7) 
4ksp

>  <ligand_pdb>  (7) 
1SU

>  <alt>  (7) 
 

>  <chain>  (7) 
B

>  <atom.prop.subpocket>  (7) 
B2 B2 B2 B2 B2 B2 B2 B2 B2 B2 B1 B1

>  <atom.prop.environment>  (7) 
16 16 16 16 16 16 16 16 16 16 na na

$$$$
3w2o_altB_chainA
     RDKit          2D

 10 10  0  0  0  0  0  0  0  0999 V2000
    2.8500   -0.0000    0.0000 C   0  0  0  0  0  0  0  0  0  0  0  0
   -0.1500    0.0000    0.0000 C   0  0  0  0  0  0  0  0  0  0  0  0
    0.6000    1.2990    0.0000 C   0  0  0  0  0  0  0  0  0  0  0  0
   -1.6500    0.0000    0.0000 C   0  0  0  0  0  0  0  0  0  0  0  0
   -3.1500   -0.0000    0.0000 F   0  0  0  0  0  0  0  0  0  0  0  0
   -1.6500    1.5000    0.0000 F   0  0  0  0  0  0  0  0  0  0  0  0
   -1.6500   -1.5000    0.0000 F   0  0  0  0  0  0  0  0  0  0  0  0
    0.6000   -1.2990    0.0000 C   0  0  0  0  0  0  0  0  0  0  0  0
    2.1000   -1.2990    0.0000 C   0  0  0  0  0  0  0  0  0  0  0  0
    2.1000    1.2990    0.0000 C   0  0  0  0  0  0  0  0  0  0  0  0
  1  9  2  0
  1 10  1  0
  2  3  1  0
  2  4  1  0
  2  8  2  0
  3 10  2  0
  4  5  1  0
  4  6  1  0
  4  7  1  0
  8  9  1  0
M  END
>  <kinase>  (8) 
EGFR

>  <family>  (8) 
EGFR

>  <group>  (8) 
TK

>  <complex_pdb>  (8) 
3w2o

>  <ligand_pdb>  (8) 
03P

>  <alt>  (8) 
B

>  <chain>  (8) 
A

>  <atom.prop.subpocket>  (8) 
B2 B2 B2 B2 B2 B2 B2 B2 B2 B2 B2 B2 B2 B2 GA

>  <atom.prop.environment>  (8) 
16 16 16 16 16 8 8 8 8 16 16 16 16 16 na

$$$$
3w2r_altA_chainA
     RDKit          2D

 10 10  0  0  0  0  0  0  0  0999 V2000
    2.3812   -0.0000    0.0000 C   0  0  0  0  0  0  0  0  0  0  0  0
   -3.0048   -0.4910    0.0000 C   0  0  0  0  0  0  0  0  0  0  0  0
   -2.7213    0.9820    0.0000 C   0  0  0  0  0  0  0  0  0  0  0  0
   -1.8709   -1.4730    0.0000 C   0  0  0  0  0  0  0  0  0  0  0  0
   -1.3040    1.4730    0.0000 C   0  0  0  0  0  0  0  0  0  0  0  0
   -0.4536   -0.9820    0.0000 C   0  0  0  0  0  0  0  0  0  0  0  0
   -0.1701    0.4910    0.0000 C   0  0  0  0  0  0  0  0  0  0  0  0
    3.7985    0.4910    0.0000 N   0  0  0  0  0  0  0  0  0  0  0  0
    1.2473    0.9820    0.0000 N   0  0  0  0  0  0  0  0  0  0  0  0
    2.0977   -1.4730    0.0000 O   0  0  0  0  0  0  0  0  0  0  0  0
  1  8  1  0
  1  9  1  0
  1 10  2  0
  2  3  1  0
  2  4  1  0
  3  5  1  0
  4  6  1  0
  5  7  1  0
  6  7  1  0
  7  9  1  0
M  END
>  <kinase>  (9) 
EGFR

>  <family>  (9) 
EGFR

>  <group>  (9) 
TK

>  <complex_pdb>  (9) 
3w2r

>  <ligand_pdb>  (9) 
W2R

>  <alt>  (9) 
A

>  <chain>  (9) 
A

>  <atom.prop.subpocket>  (9) 
B2 B2 B2 B2 B2 B2 B2 B2 B2 B2 B2 B2 B2 B2 B2 B2 B2 B2 B2 B2 B2 B2 B2 B1

>  <atom.prop.environment>  (9) 
1 15 15 15 15 15 15 15 15 15 15 15 15 15 15 15 15 15 5 5 5 5 1 na

$$$$
3w2s_altA_chainA
     RDKit          2D

 10 10  0  0  0  0  0  0  0  0999 V2000
    2.3812   -0.0000    0.0000 C   0  0  0  0  0  0  0  0  0  0  0  0
   -3.0048   -0.4910    0.0000 C   0  0  0  0  0  0  0  0  0  0  0  0
   -2.7213    0.9820    0.0000 C   0  0  0  0  0  0  0  0  0  0  0  0
   -1.8709   -1.4730    0.0000 C   0  0  0  0  0  0  0  0  0  0  0  0
   -1.3040    1.4730    0.0000 C   0  0  0  0  0  0  0  0  0  0  0  0
   -0.4536   -0.9820    0.0000 C   0  0  0  0  0  0  0  0  0  0  0  0
   -0.1701    0.4910    0.0000 C   0  0  0  0  0  0  0  0  0  0  0  0
    3.7985    0.4910    0.0000 N   0  0  0  0  0  0  0  0  0  0  0  0
    1.2473    0.9820    0.0000 N   0  0  0  0  0  0  0  0  0  0  0  0
    2.0977   -1.4730    0.0000 O   0  0  0  0  0  0  0  0  0  0  0  0
  1  8  1  0
  1  9  1  0
  1 10  2  0
  2  3  1  0
  2  4  1  0
  3  5  1  0
  4  6  1  0
  5  7  1  0
  6  7  1  0
  7  9  1  0
M  END
>  <kinase>  (10) 
EGFR

>  <family>  (10) 
EGFR

>  <group>  (10) 
TK

>  <complex_pdb>  (10) 
3w2s

>  <ligand_pdb>  (10) 
W2R

>  <alt>  (10) 
A

>  <chain>  (10) 
A

>  <atom.prop.subpocket>  (10) 
B2 B2 B2 B2 B2 B2 B2 B2 B2 B2 B2 B2 B2 B2 B2 B2 B2 B2 B2 B2 B2 B2 B2 B1

>  <atom.prop.environment>  (10) 
1 15 15 15 15 15 15 15 15 15 15 15 15 15 15 15 15 15 5 5 5 5 1 na

$$$$
4qtb_altB_chainA
     RDKit          2D

 15 16  0  0  0  0  0  0  0  0999 V2000
    4.8500   -1.2990    0.0000 C   0  0  0  0  0  0  0  0  0  0  0  0
    4.1000   -0.0000    0.0000 C   0  0  0  0  0  0  0  0  0  0  0  0
    4.8500    1.2990    0.0000 O   0  0  0  0  0  0  0  0  0  0  0  0
    2.6000   -0.0000    0.0000 N   0  0  0  0  0  0  0  0  0  0  0  0
    1.8500   -1.2990    0.0000 C   0  0  0  0  0  0  0  0  0  0  0  0
    0.3500   -1.2990    0.0000 C   0  0  0  0  0  0  0  0  0  0  0  0
   -0.4000   -0.0000    0.0000 N   0  0  0  0  0  0  0  0  0  0  0  0
    0.3500    1.2990    0.0000 C   0  0  0  0  0  0  0  0  0  0  0  0
    1.8500    1.2990    0.0000 C   0  0  0  0  0  0  0  0  0  0  0  0
   -1.9000   -0.0000    0.0000 C   0  0  0  0  0  0  0  0  0  0  0  0
   -2.6500    1.2990    0.0000 C   0  0  0  0  0  0  0  0  0  0  0  0
   -4.1500    1.2990    0.0000 C   0  0  0  0  0  0  0  0  0  0  0  0
   -4.9000    0.0000    0.0000 C   0  0  0  0  0  0  0  0  0  0  0  0
   -4.1500   -1.2990    0.0000 C   0  0  0  0  0  0  0  0  0  0  0  0
   -2.6500   -1.2990    0.0000 C   0  0  0  0  0  0  0  0  0  0  0  0
  1  2  1  0
  2  3  2  0
  2  4  1  0
  4  5  1  0
  4  9  1  0
  5  6  1  0
  6  7  1  0
  7  8  1  0
  7 10  1  0
  8  9  1  0
 10 11  2  0
 10 15  1  0
 11 12  1  0
 12 13  2  0
 13 14  1  0
 14 15  2  0
M  END
>  <kinase>  (11) 
Erk1

>  <family>  (11) 
MAPK

>  <group>  (11) 
CMGC

>  <complex_pdb>  (11) 
4qtb

>  <ligand_pdb>  (11) 
38Z

>  <alt>  (11) 
B

>  <chain>  (11) 
A

>  <atom.prop.subpocket>  (11) 
B2 B2 B2 B2 B2 B2 B2 B2 B2 B2 B2 B2 B2 B2 B2 B2 B2 B2 B2 B2 B2 B2 B2 B2 B2 B2 B2 B2 B2 GA X-B2

>  <atom.prop.environment>  (11) 
4 4 4 4 4 5 5 5 5 5 5 5 5 5 5 5 5 5 5 16 16 16 16 16 16 16 16 16 16 na na

$$$$
4fv2_altB_chainA
     RDKit          2D

 10 11  0  0  0  0  0  0  0  0999 V2000
    3.4352    0.7390    0.0000 C   0  0  0  0  0  0  0  0  0  0  0  0
    2.0217    0.2371    0.0000 C   0  0  0  0  0  0  0  0  0  0  0  0
    1.7495   -1.2380    0.0000 C   0  0  0  0  0  0  0  0  0  0  0  0
    0.3359   -1.7398    0.0000 C   0  0  0  0  0  0  0  0  0  0  0  0
   -0.8054   -0.7666    0.0000 C   0  0  0  0  0  0  0  0  0  0  0  0
   -2.2925   -0.9636    0.0000 O   0  0  0  0  0  0  0  0  0  0  0  0
   -2.9393    0.3898    0.0000 C   0  0  0  0  0  0  0  0  0  0  0  0
   -1.8521    1.4232    0.0000 C   0  0  0  0  0  0  0  0  0  0  0  0
   -0.5333    0.7085    0.0000 C   0  0  0  0  0  0  0  0  0  0  0  0
    0.8803    1.2104    0.0000 C   0  0  0  0  0  0  0  0  0  0  0  0
  1  2  1  0
  2  3  2  0
  2 10  1  0
  3  4  1  0
  4  5  2  0
  5  6  1  0
  5  9  1  0
  6  7  1  0
  7  8  1  0
  8  9  1  0
  9 10  2  0
M  END
>  <kinase>  (12) 
Erk2

>  <family>  (12) 
MAPK

>  <group>  (12) 
CMGC

>  <complex_pdb>  (12) 
4fv2

>  <ligand_pdb>  (12) 
EK5

>  <alt>  (12) 
B

>  <chain>  (12) 
A

>  <atom.prop.subpocket>  (12) 
B2 B2 B2 B2 B2 B2 B2 B2 B2 B2 B2 B2 B2 B2 B2 B2 B2 B2 B2 GA

>  <atom.prop.environment>  (12) 
8 8 8 16 16 16 16 16 16 16 16 16 16 16 16 16 16 16 16 na

$$$$
4g6o_chainA
     RDKit          2D

 10 11  0  0  0  0  0  0  0  0999 V2000
    3.4352    0.7390    0.0000 C   0  0  0  0  0  0  0  0  0  0  0  0
    2.0217    0.2371    0.0000 C   0  0  0  0  0  0  0  0  0  0  0  0
    1.7495   -1.2380    0.0000 C   0  0  0  0  0  0  0  0  0  0  0  0
    0.3359   -1.7398    0.0000 C   0  0  0  0  0  0  0  0  0  0  0  0
   -0.8054   -0.7666    0.0000 C   0  0  0  0  0  0  0  0  0  0  0  0
   -2.2925   -0.9636    0.0000 O   0  0  0  0  0  0  0  0  0  0  0  0
   -2.9393    0.3898    0.0000 C   0  0  0  0  0  0  0  0  0  0  0  0
   -1.8521    1.4232    0.0000 C   0  0  0  0  0  0  0  0  0  0  0  0
   -0.5333    0.7085    0.0000 C   0  0  0  0  0  0  0  0  0  0  0  0
    0.8803    1.2104    0.0000 C   0  0  0  0  0  0  0  0  0  0  0  0
  1  2  1  0
  2  3  2  0
  2 10  1  0
  3  4  1  0
  4  5  2  0
  5  6  1  0
  5  9  1  0
  6  7  1  0
  7  8  1  0
  8  9  1  0
  9 10  2  0
M  END
>  <kinase>  (13) 
Erk2

>  <family>  (13) 
MAPK

>  <group>  (13) 
CMGC

>  <complex_pdb>  (13) 
4g6o

>  <ligand_pdb>  (13) 
E28

>  <alt>  (13) 
 

>  <chain>  (13) 
A

>  <atom.prop.subpocket>  (13) 
B2 B2 B2 B2 B2 B2 B2 B2 B2 B2 B2 B2 B2 B2 B2 B2 B2 B2 B2 GA

>  <atom.prop.environment>  (13) 
8 8 8 16 16 16 16 16 16 16 16 16 16 16 16 16 16 16 16 na

$$$$
4qta_altB_chainA
     RDKit          2D

 15 16  0  0  0  0  0  0  0  0999 V2000
    4.8500   -1.2990    0.0000 C   0  0  0  0  0  0  0  0  0  0  0  0
    4.1000   -0.0000    0.0000 C   0  0  0  0  0  0  0  0  0  0  0  0
    4.8500    1.2990    0.0000 O   0  0  0  0  0  0  0  0  0  0  0  0
    2.6000   -0.0000    0.0000 N   0  0  0  0  0  0  0  0  0  0  0  0
    1.8500   -1.2990    0.0000 C   0  0  0  0  0  0  0  0  0  0  0  0
    0.3500   -1.2990    0.0000 C   0  0  0  0  0  0  0  0  0  0  0  0
   -0.4000   -0.0000    0.0000 N   0  0  0  0  0  0  0  0  0  0  0  0
    0.3500    1.2990    0.0000 C   0  0  0  0  0  0  0  0  0  0  0  0
    1.8500    1.2990    0.0000 C   0  0  0  0  0  0  0  0  0  0  0  0
   -1.9000   -0.0000    0.0000 C   0  0  0  0  0  0  0  0  0  0  0  0
   -2.6500    1.2990    0.0000 C   0  0  0  0  0  0  0  0  0  0  0  0
   -4.1500    1.2990    0.0000 C   0  0  0  0  0  0  0  0  0  0  0  0
   -4.9000    0.0000    0.0000 C   0  0  0  0  0  0  0  0  0  0  0  0
   -4.1500   -1.2990    0.0000 C   0  0  0  0  0  0  0  0  0  0  0  0
   -2.6500   -1.2990    0.0000 C   0  0  0  0  0  0  0  0  0  0  0  0
  1  2  1  0
  2  3  2  0
  2  4  1  0
  4  5  1  0
  4  9  1  0
  5  6  1  0
  6  7  1  0
  7  8  1  0
  7 10  1  0
  8  9  1  0
 10 11  2  0
 10 15  1  0
 11 12  1  0
 12 13  2  0
 13 14  1  0
 14 15  2  0
M  END
>  <kinase>  (14) 
Erk2

>  <family>  (14) 
MAPK

>  <group>  (14) 
CMGC

>  <complex_pdb>  (14) 
4qta

>  <ligand_pdb>  (14) 
38Z

>  <alt>  (14) 
B

>  <chain>  (14) 
A

>  <atom.prop.subpocket>  (14) 
B2 B2 B2 B2 B2 B2 B2 B2 B2 B2 B2 B2 B2 B2 B2 B2 B2 B2 B2 B2 B2 B2 B2 B2 B2 B2 B2 B2 B2 GA X-B2

>  <atom.prop.environment>  (14) 
4 4 4 4 4 5 5 5 5 5 5 5 5 5 5 5 5 5 5 16 16 16 16 16 16 16 16 16 16 na na

$$$$
5bue_chainA
     RDKit          2D

  6  6  0  0  0  0  0  0  0  0999 V2000
    1.5000    0.0000    0.0000 C   0  0  0  0  0  0  0  0  0  0  0  0
    0.7500   -1.2990    0.0000 C   0  0  0  0  0  0  0  0  0  0  0  0
   -0.7500   -1.2990    0.0000 C   0  0  0  0  0  0  0  0  0  0  0  0
   -1.5000    0.0000    0.0000 C   0  0  0  0  0  0  0  0  0  0  0  0
   -0.7500    1.2990    0.0000 C   0  0  0  0  0  0  0  0  0  0  0  0
    0.7500    1.2990    0.0000 C   0  0  0  0  0  0  0  0  0  0  0  0
  1  2  2  0
  1  6  1  0
  2  3  1  0
  3  4  2  0
  4  5  1  0
  5  6  2  0
M  END
>  <kinase>  (15) 
Erk2

>  <family>  (15) 
MAPK

>  <group>  (15) 
CMGC

>  <complex_pdb>  (15) 
5bue

>  <ligand_pdb>  (15) 
4V8

>  <alt>  (15) 
 

>  <chain>  (15) 
A

>  <atom.prop.subpocket>  (15) 
B2 B2 B2 B2 B2 B2 B2 B2 B2 B2 B2 GA

>  <atom.prop.environment>  (15) 
16 16 16 16 16 16 16 16 16 16 16 na

$$$$
6g9m_altB_chainA
     RDKit          2D

  7  6  0  0  0  0  0  0  0  0999 V2000
   -2.5981    0.8571    0.0000 C   0  0  0  0  0  0  0  0  0  0  0  0
   -1.2990    0.1071    0.0000 C   0  0  0  0  0  0  0  0  0  0  0  0
   -1.2990   -1.3929    0.0000 C   0  0  0  0  0  0  0  0  0  0  0  0
    0.0000    0.8571    0.0000 N   0  0  0  0  0  0  0  0  0  0  0  0
    1.2990    0.1071    0.0000 C   0  0  0  0  0  0  0  0  0  0  0  0
    2.5981    0.8571    0.0000 C   0  0  0  0  0  0  0  0  0  0  0  0
    1.2990   -1.3929    0.0000 O   0  0  0  0  0  0  0  0  0  0  0  0
  1  2  1  0
  2  3  1  0
  2  4  1  0
  4  5  1  0
  5  6  1  0
  5  7  2  0
M  END
>  <kinase>  (16) 
Erk2

>  <family>  (16) 
MAPK

>  <group>  (16) 
CMGC

>  <complex_pdb>  (16) 
6g9m

>  <ligand_pdb>  (16) 
ESW

>  <alt>  (16) 
B

>  <chain>  (16) 
A

>  <atom.prop.subpocket>  (16) 
B2 B2 B2 B2 B2 B2 B2 B2 B2 B2 B2 B2 B2 B2 B2 B2 GA GA

>  <atom.prop.environment>  (16) 
8 8 8 8 8 8 8 8 8 5 5 8 8 8 8 8 na na

$$$$
6gdm_altB_chainA
     RDKit          2D

 15 16  0  0  0  0  0  0  0  0999 V2000
    4.8500   -1.2990    0.0000 C   0  0  0  0  0  0  0  0  0  0  0  0
    4.1000   -0.0000    0.0000 C   0  0  0  0  0  0  0  0  0  0  0  0
    4.8500    1.2990    0.0000 O   0  0  0  0  0  0  0  0  0  0  0  0
    2.6000   -0.0000    0.0000 N   0  0  0  0  0  0  0  0  0  0  0  0
    1.8500   -1.2990    0.0000 C   0  0  0  0  0  0  0  0  0  0  0  0
    0.3500   -1.2990    0.0000 C   0  0  0  0  0  0  0  0  0  0  0  0
   -0.4000   -0.0000    0.0000 N   0  0  0  0  0  0  0  0  0  0  0  0
    0.3500    1.2990    0.0000 C   0  0  0  0  0  0  0  0  0  0  0  0
    1.8500    1.2990    0.0000 C   0  0  0  0  0  0  0  0  0  0  0  0
   -1.9000   -0.0000    0.0000 C   0  0  0  0  0  0  0  0  0  0  0  0
   -2.6500    1.2990    0.0000 C   0  0  0  0  0  0  0  0  0  0  0  0
   -4.1500    1.2990    0.0000 C   0  0  0  0  0  0  0  0  0  0  0  0
   -4.9000    0.0000    0.0000 C   0  0  0  0  0  0  0  0  0  0  0  0
   -4.1500   -1.2990    0.0000 C   0  0  0  0  0  0  0  0  0  0  0  0
   -2.6500   -1.2990    0.0000 C   0  0  0  0  0  0  0  0  0  0  0  0
  1  2  1  0
  2  3  2  0
  2  4  1  0
  4  5  1  0
  4  9  1  0
  5  6  1  0
  6  7  1  0
  7  8  1  0
  7 10  1  0
  8  9  1  0
 10 11  2  0
 10 15  1  0
 11 12  1  0
 12 13  2  0
 13 14  1  0
 14 15  2  0
M  END
>  <kinase>  (17) 
Erk2

>  <family>  (17) 
MAPK

>  <group>  (17) 
CMGC

>  <complex_pdb>  (17) 
6gdm

>  <ligand_pdb>  (17) 
F3Z

>  <alt>  (17) 
B

>  <chain>  (17) 
A

>  <atom.prop.subpocket>  (17) 
B2 B2 B2 B2 B2 B2 B2 B2 B2 B2 B2 B2 B2 B2 B2 B2 B2 B2 B2 B2 B2 B2 B2 B2 B2 B2 B2 B2 B2 GA X-B2

>  <atom.prop.environment>  (17) 
4 4 4 4 4 5 5 5 5 5 5 5 5 5 5 5 5 5 5 16 16 16 16 16 16 16 16 16 16 na na

$$$$
6ge0_altA_chainA
     RDKit          2D

 14 14  0  0  0  0  0  0  0  0999 V2000
    2.7249   -3.0232    0.0000 C   0  0  0  0  0  0  0  0  0  0  0  0
    2.5959   -0.4284    0.0000 C   0  0  0  0  0  0  0  0  0  0  0  0
    2.4669    2.1665    0.0000 C   0  0  0  0  0  0  0  0  0  0  0  0
    0.9687    2.0920    0.0000 C   0  0  0  0  0  0  0  0  0  0  0  0
    0.2842    0.7574    0.0000 C   0  0  0  0  0  0  0  0  0  0  0  0
    1.0978   -0.5028    0.0000 C   0  0  0  0  0  0  0  0  0  0  0  0
   -2.0276    1.9431    0.0000 C   0  0  0  0  0  0  0  0  0  0  0  0
   -3.3967   -0.7263    0.0000 C   0  0  0  0  0  0  0  0  0  0  0  0
   -4.0813   -2.0610    0.0000 C   0  0  0  0  0  0  0  0  0  0  0  0
    3.4095   -1.6885    0.0000 O   0  0  0  0  0  0  0  0  0  0  0  0
    3.2805    0.9063    0.0000 C   0  0  0  0  0  0  0  0  0  0  0  0
   -1.2140    0.6829    0.0000 C   0  0  0  0  0  0  0  0  0  0  0  0
   -1.8985   -0.6518    0.0000 N   0  0  0  0  0  0  0  0  0  0  0  0
   -4.2103    0.5339    0.0000 O   0  0  0  0  0  0  0  0  0  0  0  0
  1 10  1  0
  2  6  2  0
  2 10  1  0
  2 11  1  0
  3  4  1  0
  3 11  2  0
  4  5  2  0
  5  6  1  0
  5 12  1  0
 12  7  1  6
  8  9  1  0
  8 13  1  0
  8 14  2  0
 12 13  1  0
M  END
>  <kinase>  (18) 
Erk2

>  <family>  (18) 
MAPK

>  <group>  (18) 
CMGC

>  <complex_pdb>  (18) 
6ge0

>  <ligand_pdb>  (18) 
EVQ

>  <alt>  (18) 
A

>  <chain>  (18) 
A

>  <atom.prop.subpocket>  (18) 
B2 B2 B2 B2 B2 B2 B2 B2 B2 B2 B2 B2 B2 B2 B2 B2 B2 B2 B2 B2 B2 B2 B2 B2 B2 B2 B2 B2 GA

>  <atom.prop.environment>  (18) 
3 3 3 3 16 16 16 16 16 16 16 16 8 8 8 8 8 8 8 8 3 16 16 8 8 5 5 8 na

$$$$
6gjd_altA_chainA
     RDKit          2D

 15 16  0  0  0  0  0  0  0  0999 V2000
    4.8500    1.2990    0.0000 O   0  0  0  0  0  0  0  0  0  0  0  0
    4.1000   -0.0000    0.0000 C   0  0  0  0  0  0  0  0  0  0  0  0
    4.8500   -1.2990    0.0000 C   0  0  0  0  0  0  0  0  0  0  0  0
    2.6000   -0.0000    0.0000 N   0  0  0  0  0  0  0  0  0  0  0  0
    1.8500   -1.2990    0.0000 C   0  0  0  0  0  0  0  0  0  0  0  0
    0.3500   -1.2990    0.0000 C   0  0  0  0  0  0  0  0  0  0  0  0
   -0.4000   -0.0000    0.0000 N   0  0  0  0  0  0  0  0  0  0  0  0
    0.3500    1.2990    0.0000 C   0  0  0  0  0  0  0  0  0  0  0  0
    1.8500    1.2990    0.0000 C   0  0  0  0  0  0  0  0  0  0  0  0
   -1.9000   -0.0000    0.0000 C   0  0  0  0  0  0  0  0  0  0  0  0
   -2.6500    1.2990    0.0000 C   0  0  0  0  0  0  0  0  0  0  0  0
   -4.1500    1.2990    0.0000 C   0  0  0  0  0  0  0  0  0  0  0  0
   -4.9000    0.0000    0.0000 C   0  0  0  0  0  0  0  0  0  0  0  0
   -4.1500   -1.2990    0.0000 C   0  0  0  0  0  0  0  0  0  0  0  0
   -2.6500   -1.2990    0.0000 C   0  0  0  0  0  0  0  0  0  0  0  0
  1  2  2  0
  2  3  1  0
  2  4  1  0
  4  5  1  0
  4  9  1  0
  5  6  1  0
  6  7  1  0
  7  8  1  0
  7 10  1  0
  8  9  1  0
 10 11  2  0
 10 15  1  0
 11 12  1  0
 12 13  2  0
 13 14  1  0
 14 15  2  0
M  END
>  <kinase>  (19) 
Erk2

>  <family>  (19) 
MAPK

>  <group>  (19) 
CMGC

>  <complex_pdb>  (19) 
6gjd

>  <ligand_pdb>  (19) 
F0E

>  <alt>  (19) 
A

>  <chain>  (19) 
A

>  <atom.prop.subpocket>  (19) 
B2 B2 B2 B2 B2 B2 B2 B2 B2 B2 B2 B2 B2 B2 B2 B2 B2 B2 B2 B2 B2 B2 B2 B2 B2 B2 B2 B2 B2 GA X-B2

>  <atom.prop.environment>  (19) 
4 4 4 4 4 5 5 5 5 5 5 5 5 5 5 5 5 5 5 16 16 16 16 16 16 16 16 16 16 na na

$$$$
6opi_chainA
     RDKit          2D

 15 16  0  0  0  0  0  0  0  0999 V2000
    4.8500   -1.2990    0.0000 C   0  0  0  0  0  0  0  0  0  0  0  0
    4.1000   -0.0000    0.0000 C   0  0  0  0  0  0  0  0  0  0  0  0
    4.8500    1.2990    0.0000 O   0  0  0  0  0  0  0  0  0  0  0  0
    2.6000   -0.0000    0.0000 N   0  0  0  0  0  0  0  0  0  0  0  0
    1.8500   -1.2990    0.0000 C   0  0  0  0  0  0  0  0  0  0  0  0
    0.3500   -1.2990    0.0000 C   0  0  0  0  0  0  0  0  0  0  0  0
   -0.4000   -0.0000    0.0000 C   0  0  0  0  0  0  0  0  0  0  0  0
    0.3500    1.2990    0.0000 C   0  0  0  0  0  0  0  0  0  0  0  0
    1.8500    1.2990    0.0000 C   0  0  0  0  0  0  0  0  0  0  0  0
   -1.9000   -0.0000    0.0000 C   0  0  0  0  0  0  0  0  0  0  0  0
   -2.6500    1.2990    0.0000 C   0  0  0  0  0  0  0  0  0  0  0  0
   -4.1500    1.2990    0.0000 C   0  0  0  0  0  0  0  0  0  0  0  0
   -4.9000    0.0000    0.0000 C   0  0  0  0  0  0  0  0  0  0  0  0
   -4.1500   -1.2990    0.0000 C   0  0  0  0  0  0  0  0  0  0  0  0
   -2.6500   -1.2990    0.0000 C   0  0  0  0  0  0  0  0  0  0  0  0
  1  2  1  0
  2  3  2  0
  2  4  1  0
  4  5  1  0
  4  9  1  0
  5  6  1  0
  6  7  1  0
  7  8  2  0
  7 10  1  0
  8  9  1  0
 10 11  2  0
 10 15  1  0
 11 12  1  0
 12 13  2  0
 13 14  1  0
 14 15  2  0
M  END
>  <kinase>  (20) 
Erk2

>  <family>  (20) 
MAPK

>  <group>  (20) 
CMGC

>  <complex_pdb>  (20) 
6opi

>  <ligand_pdb>  (20) 
N0V

>  <alt>  (20) 
 

>  <chain>  (20) 
A

>  <atom.prop.subpocket>  (20) 
B2 B2 B2 B2 B2 B2 B2 B2 B2 B2 B2 B2 B2 B2 B2 B2 B2 B2 B2 B2 B2 B2 B2 B2 B2 B2 B2 B2 GA X-B2

>  <atom.prop.environment>  (20) 
4 4 4 4 4 16 16 16 16 16 16 16 16 16 16 16 16 16 16 16 16 16 16 16 16 16 16 16 na na

$$$$
5zv2_chainA
     RDKit          2D

  4  4  0  0  0  0  0  0  0  0999 V2000
    1.7745    0.0000    0.0000 N   0  0  0  0  0  0  0  0  0  0  0  0
    0.2745   -0.0000    0.0000 C   0  0  0  0  0  0  0  0  0  0  0  0
   -1.0245    0.7500    0.0000 C   0  0  0  0  0  0  0  0  0  0  0  0
   -1.0245   -0.7500    0.0000 C   0  0  0  0  0  0  0  0  0  0  0  0
  1  2  1  0
  2  3  1  0
  2  4  1  0
  3  4  1  0
M  END
>  <kinase>  (21) 
FGFR1

>  <family>  (21) 
FGFR

>  <group>  (21) 
TK

>  <complex_pdb>  (21) 
5zv2

>  <ligand_pdb>  (21) 
LEV

>  <alt>  (21) 
 

>  <chain>  (21) 
A

>  <atom.prop.subpocket>  (21) 
B2 B2 B2 B2 B2 B2 B2 B2 B2 B2 GA

>  <atom.prop.environment>  (21) 
5 5 15 15 15 15 15 15 15 15 na

$$$$
2c0i_altB_chainB
     RDKit          2D

 10 11  0  0  0  0  0  0  0  0999 V2000
   -2.1766    1.0042    0.0000 C   0  0  0  0  0  0  0  0  0  0  0  0
   -1.7242   -0.4260    0.0000 N   0  0  0  0  0  0  0  0  0  0  0  0
   -0.9564    1.8765    0.0000 C   0  0  0  0  0  0  0  0  0  0  0  0
   -0.2242   -0.4375    0.0000 C   0  0  0  0  0  0  0  0  0  0  0  0
   -2.6152   -1.6326    0.0000 C   0  0  0  0  0  0  0  0  0  0  0  0
    0.2503    0.9854    0.0000 C   0  0  0  0  0  0  0  0  0  0  0  0
    0.7709   -1.5600    0.0000 C   0  0  0  0  0  0  0  0  0  0  0  0
    1.7199    1.2860    0.0000 C   0  0  0  0  0  0  0  0  0  0  0  0
    2.2404   -1.2594    0.0000 C   0  0  0  0  0  0  0  0  0  0  0  0
    2.7150    0.1635    0.0000 C   0  0  0  0  0  0  0  0  0  0  0  0
  1  2  1  0
  1  3  2  0
  2  4  1  0
  2  5  1  0
  3  6  1  0
  4  6  2  0
  4  7  1  0
  6  8  1  0
  7  9  2  0
  8 10  2  0
  9 10  1  0
M  END
>  <kinase>  (22) 
HCK

>  <family>  (22) 
Src

>  <group>  (22) 
TK

>  <complex_pdb>  (22) 
2c0i

>  <ligand_pdb>  (22) 
L1G

>  <alt>  (22) 
B

>  <chain>  (22) 
B

>  <atom.prop.subpocket>  (22) 
B2 B2 B2 B2 B2 B2 B2 B2 B2 B2 B2 B2 B2 B2 B2 B2 B2 B2 GA

>  <atom.prop.environment>  (22) 
9 9 9 9 9 8 8 8 8 9 9 9 9 9 9 9 9 9 na

$$$$
2c0o_altB_chainA
     RDKit          2D

 10 11  0  0  0  0  0  0  0  0999 V2000
   -2.1766    1.0042    0.0000 C   0  0  0  0  0  0  0  0  0  0  0  0
   -1.7242   -0.4260    0.0000 N   0  0  0  0  0  0  0  0  0  0  0  0
   -0.9564    1.8765    0.0000 C   0  0  0  0  0  0  0  0  0  0  0  0
   -0.2242   -0.4375    0.0000 C   0  0  0  0  0  0  0  0  0  0  0  0
   -2.6152   -1.6326    0.0000 C   0  0  0  0  0  0  0  0  0  0  0  0
    0.2503    0.9854    0.0000 C   0  0  0  0  0  0  0  0  0  0  0  0
    0.7709   -1.5600    0.0000 C   0  0  0  0  0  0  0  0  0  0  0  0
    1.7199    1.2860    0.0000 C   0  0  0  0  0  0  0  0  0  0  0  0
    2.2404   -1.2594    0.0000 C   0  0  0  0  0  0  0  0  0  0  0  0
    2.7150    0.1635    0.0000 C   0  0  0  0  0  0  0  0  0  0  0  0
  1  2  1  0
  1  3  2  0
  2  4  1  0
  2  5  1  0
  3  6  1  0
  4  6  2  0
  4  7  1  0
  6  8  1  0
  7  9  2  0
  8 10  2  0
  9 10  1  0
M  END
>  <kinase>  (23) 
HCK

>  <family>  (23) 
Src

>  <group>  (23) 
TK

>  <complex_pdb>  (23) 
2c0o

>  <ligand_pdb>  (23) 
L2G

>  <alt>  (23) 
B

>  <chain>  (23) 
A

>  <atom.prop.subpocket>  (23) 
B2 B2 B2 B2 B2 B2 B2 B2 B2 B2 B2 B2 B2 B2 B2 B2 B2 B2 GA

>  <atom.prop.environment>  (23) 
9 9 9 9 9 8 8 8 8 9 9 9 9 9 9 9 9 9 na

$$$$
2c0t_altB_chainB
     RDKit          2D

 10 11  0  0  0  0  0  0  0  0999 V2000
   -2.1766    1.0042    0.0000 C   0  0  0  0  0  0  0  0  0  0  0  0
   -1.7242   -0.4260    0.0000 N   0  0  0  0  0  0  0  0  0  0  0  0
   -0.9564    1.8765    0.0000 C   0  0  0  0  0  0  0  0  0  0  0  0
   -0.2242   -0.4375    0.0000 C   0  0  0  0  0  0  0  0  0  0  0  0
   -2.6152   -1.6326    0.0000 C   0  0  0  0  0  0  0  0  0  0  0  0
    0.2503    0.9854    0.0000 C   0  0  0  0  0  0  0  0  0  0  0  0
    0.7709   -1.5600    0.0000 C   0  0  0  0  0  0  0  0  0  0  0  0
    1.7199    1.2860    0.0000 C   0  0  0  0  0  0  0  0  0  0  0  0
    2.2404   -1.2594    0.0000 C   0  0  0  0  0  0  0  0  0  0  0  0
    2.7150    0.1635    0.0000 C   0  0  0  0  0  0  0  0  0  0  0  0
  1  2  1  0
  1  3  2  0
  2  4  1  0
  2  5  1  0
  3  6  1  0
  4  6  2  0
  4  7  1  0
  6  8  1  0
  7  9  2  0
  8 10  2  0
  9 10  1  0
M  END
>  <kinase>  (24) 
HCK

>  <family>  (24) 
Src

>  <group>  (24) 
TK

>  <complex_pdb>  (24) 
2c0t

>  <ligand_pdb>  (24) 
L3G

>  <alt>  (24) 
B

>  <chain>  (24) 
B

>  <atom.prop.subpocket>  (24) 
B2 B2 B2 B2 B2 B2 B2 B2 B2 B2 B2 B2 B2 B2 B2 B2 B2 B2 GA

>  <atom.prop.environment>  (24) 
9 9 9 9 9 8 8 8 8 9 9 9 9 9 9 9 9 9 na

$$$$
3d94_altA_chainA
     RDKit          2D

  6  6  0  0  0  0  0  0  0  0999 V2000
    1.5000    0.0000    0.0000 C   0  0  0  0  0  0  0  0  0  0  0  0
    0.7500   -1.2990    0.0000 C   0  0  0  0  0  0  0  0  0  0  0  0
   -0.7500   -1.2990    0.0000 C   0  0  0  0  0  0  0  0  0  0  0  0
   -1.5000    0.0000    0.0000 C   0  0  0  0  0  0  0  0  0  0  0  0
   -0.7500    1.2990    0.0000 C   0  0  0  0  0  0  0  0  0  0  0  0
    0.7500    1.2990    0.0000 C   0  0  0  0  0  0  0  0  0  0  0  0
  1  2  2  0
  1  6  1  0
  2  3  1  0
  3  4  2  0
  4  5  1  0
  5  6  2  0
M  END
>  <kinase>  (25) 
IGF1R

>  <family>  (25) 
InsR

>  <group>  (25) 
TK

>  <complex_pdb>  (25) 
3d94

>  <ligand_pdb>  (25) 
D94

>  <alt>  (25) 
A

>  <chain>  (25) 
A

>  <atom.prop.subpocket>  (25) 
B2 B2 B2 B2 B2 B2 B2 B2 B2 B2 B2 GA

>  <atom.prop.environment>  (25) 
16 16 16 16 16 16 16 16 16 16 16 na

$$$$
3f5p_chainA
     RDKit          2D

  6  6  0  0  0  0  0  0  0  0999 V2000
    0.0684   -1.2135    0.0000 C   0  0  0  0  0  0  0  0  0  0  0  0
    1.4949   -0.7500    0.0000 N   0  0  0  0  0  0  0  0  0  0  0  0
    1.4949    0.7500    0.0000 C   0  0  0  0  0  0  0  0  0  0  0  0
    0.0684    1.2135    0.0000 C   0  0  0  0  0  0  0  0  0  0  0  0
   -0.8133    0.0000    0.0000 N   0  0  0  0  0  0  0  0  0  0  0  0
   -2.3133   -0.0000    0.0000 C   0  0  0  0  0  0  0  0  0  0  0  0
  1  2  2  0
  1  5  1  0
  2  3  1  0
  3  4  2  0
  4  5  1  0
  5  6  1  0
M  END
>  <kinase>  (26) 
IGF1R

>  <family>  (26) 
InsR

>  <group>  (26) 
TK

>  <complex_pdb>  (26) 
3f5p

>  <ligand_pdb>  (26) 
741

>  <alt>  (26) 
 

>  <chain>  (26) 
A

>  <atom.prop.subpocket>  (26) 
B2 B2 B2 B2 B2 B2 B2 B2 B2 B2 B2 GA

>  <atom.prop.environment>  (26) 
14 14 14 14 14 14 14 8 8 8 8 na

$$$$
3da6_chainA
     RDKit          2D

  9 10  0  0  0  0  0  0  0  0999 V2000
   -1.7191    1.2135    0.0000 N   0  0  0  0  0  0  0  0  0  0  0  0
   -0.2925   -0.7500    0.0000 C   0  0  0  0  0  0  0  0  0  0  0  0
    1.0065   -1.5000    0.0000 C   0  0  0  0  0  0  0  0  0  0  0  0
    2.3055   -0.7500    0.0000 C   0  0  0  0  0  0  0  0  0  0  0  0
    2.3055    0.7500    0.0000 C   0  0  0  0  0  0  0  0  0  0  0  0
    1.0065    1.5000    0.0000 C   0  0  0  0  0  0  0  0  0  0  0  0
   -2.6008   -0.0000    0.0000 C   0  0  0  0  0  0  0  0  0  0  0  0
   -1.7191   -1.2135    0.0000 N   0  0  0  0  0  0  0  0  0  0  0  0
   -0.2925    0.7500    0.0000 C   0  0  0  0  0  0  0  0  0  0  0  0
  1  7  1  0
  1  9  1  0
  2  3  1  0
  2  8  1  0
  2  9  2  0
  3  4  2  0
  4  5  1  0
  5  6  2  0
  6  9  1  0
  7  8  2  0
M  END
>  <kinase>  (27) 
JNK3

>  <family>  (27) 
MAPK

>  <group>  (27) 
CMGC

>  <complex_pdb>  (27) 
3da6

>  <ligand_pdb>  (27) 
BZ9

>  <alt>  (27) 
 

>  <chain>  (27) 
A

>  <atom.prop.subpocket>  (27) 
B2 B2 B2 B2 B2 B2 B2 B2 B2 B2 B2 B2 B2 B2 GA

>  <atom.prop.environment>  (27) 
14 14 14 14 14 14 14 14 14 14 14 14 14 14 na

$$$$
3b8r_chainB
     RDKit          2D

  4  4  0  0  0  0  0  0  0  0999 V2000
    1.7745    0.0000    0.0000 N   0  0  0  0  0  0  0  0  0  0  0  0
    0.2745   -0.0000    0.0000 C   0  0  0  0  0  0  0  0  0  0  0  0
   -1.0245    0.7500    0.0000 C   0  0  0  0  0  0  0  0  0  0  0  0
   -1.0245   -0.7500    0.0000 C   0  0  0  0  0  0  0  0  0  0  0  0
  1  2  1  0
  2  3  1  0
  2  4  1  0
  3  4  1  0
M  END
>  <kinase>  (28) 
KDR

>  <family>  (28) 
VEGFR

>  <group>  (28) 
TK

>  <complex_pdb>  (28) 
3b8r

>  <ligand_pdb>  (28) 
887

>  <alt>  (28) 
 

>  <chain>  (28) 
B

>  <atom.prop.subpocket>  (28) 
B2 B2 B2 B2 B2 B2 B2 B2 B2 B2 GA

>  <atom.prop.environment>  (28) 
5 5 15 15 15 15 15 15 15 15 na

$$$$
3wzd_altA_chainA
     RDKit          2D

  4  4  0  0  0  0  0  0  0  0999 V2000
    1.7745    0.0000    0.0000 N   0  0  0  0  0  0  0  0  0  0  0  0
    0.2745   -0.0000    0.0000 C   0  0  0  0  0  0  0  0  0  0  0  0
   -1.0245    0.7500    0.0000 C   0  0  0  0  0  0  0  0  0  0  0  0
   -1.0245   -0.7500    0.0000 C   0  0  0  0  0  0  0  0  0  0  0  0
  1  2  1  0
  2  3  1  0
  2  4  1  0
  3  4  1  0
M  END
>  <kinase>  (29) 
KDR

>  <family>  (29) 
VEGFR

>  <group>  (29) 
TK

>  <complex_pdb>  (29) 
3wzd

>  <ligand_pdb>  (29) 
LEV

>  <alt>  (29) 
A

>  <chain>  (29) 
A

>  <atom.prop.subpocket>  (29) 
B2 B2 B2 B2 B2 B2 B2 B2 B2 B2 GA

>  <atom.prop.environment>  (29) 
5 5 15 15 15 15 15 15 15 15 na

$$$$
3u6h_altB_chainA
     RDKit          2D

  6  6  0  0  0  0  0  0  0  0999 V2000
    1.5000    0.0000    0.0000 C   0  0  0  0  0  0  0  0  0  0  0  0
   -0.7500   -1.2990    0.0000 C   0  0  0  0  0  0  0  0  0  0  0  0
   -0.7500    1.2990    0.0000 C   0  0  0  0  0  0  0  0  0  0  0  0
    0.7500   -1.2990    0.0000 C   0  0  0  0  0  0  0  0  0  0  0  0
   -1.5000    0.0000    0.0000 C   0  0  0  0  0  0  0  0  0  0  0  0
    0.7500    1.2990    0.0000 C   0  0  0  0  0  0  0  0  0  0  0  0
  1  4  2  0
  1  6  1  0
  2  4  1  0
  2  5  2  0
  3  5  1  0
  3  6  2  0
M  END
>  <kinase>  (30) 
MET

>  <family>  (30) 
Met

>  <group>  (30) 
TK

>  <complex_pdb>  (30) 
3u6h

>  <ligand_pdb>  (30) 
03X

>  <alt>  (30) 
B

>  <chain>  (30) 
A

>  <atom.prop.subpocket>  (30) 
B2 B2 B2 B2 B2 B2 B2 B2 B2 B2 B2 B1

>  <atom.prop.environment>  (30) 
16 16 16 16 16 16 16 16 16 16 16 na

$$$$
3u6i_chainA
     RDKit          2D

  4  3  0  0  0  0  0  0  0  0999 V2000
   -1.2990   -0.7500    0.0000 C   0  0  0  0  0  0  0  0  0  0  0  0
    0.0000    0.0000    0.0000 C   0  0  0  0  0  0  0  0  0  0  0  0
    1.2990   -0.7500    0.0000 C   0  0  0  0  0  0  0  0  0  0  0  0
    0.0000    1.5000    0.0000 O   0  0  0  0  0  0  0  0  0  0  0  0
  2  1  1  6
  2  3  1  0
  2  4  1  0
M  END
>  <kinase>  (31) 
MET

>  <family>  (31) 
Met

>  <group>  (31) 
TK

>  <complex_pdb>  (31) 
3u6i

>  <ligand_pdb>  (31) 
044

>  <alt>  (31) 
 

>  <chain>  (31) 
A

>  <atom.prop.subpocket>  (31) 
B2 B2 B2 B2 B2 B2 B2 B2 B2 B2 B2 B1

>  <atom.prop.environment>  (31) 
8 8 8 8 8 8 8 8 8 3 3 na

$$$$
6e9w_chainB
     RDKit          2D

 10 11  0  0  0  0  0  0  0  0999 V2000
    2.5981   -0.7500    0.0000 C   0  0  0  0  0  0  0  0  0  0  0  0
    1.2990   -1.5000    0.0000 C   0  0  0  0  0  0  0  0  0  0  0  0
    0.0000   -0.7500    0.0000 C   0  0  0  0  0  0  0  0  0  0  0  0
   -0.0000    0.7500    0.0000 C   0  0  0  0  0  0  0  0  0  0  0  0
   -2.5981    0.7500    0.0000 C   0  0  0  0  0  0  0  0  0  0  0  0
    1.2990    1.5000    0.0000 C   0  0  0  0  0  0  0  0  0  0  0  0
   -1.2990    1.5000    0.0000 O   0  0  0  0  0  0  0  0  0  0  0  0
   -2.5981   -0.7500    0.0000 C   0  0  0  0  0  0  0  0  0  0  0  0
   -1.2990   -1.5000    0.0000 O   0  0  0  0  0  0  0  0  0  0  0  0
    2.5981    0.7500    0.0000 C   0  0  0  0  0  0  0  0  0  0  0  0
  1  2  2  0
  1 10  1  0
  2  3  1  0
  3  4  2  0
  3  9  1  0
  4  6  1  0
  4  7  1  0
  5  7  1  0
  5  8  1  0
  6 10  2  0
  8  9  1  0
M  END
>  <kinase>  (32) 
ROCK1

>  <family>  (32) 
DMPK

>  <group>  (32) 
AGC

>  <complex_pdb>  (32) 
6e9w

>  <ligand_pdb>  (32) 
J0P

>  <alt>  (32) 
 

>  <chain>  (32) 
B

>  <atom.prop.subpocket>  (32) 
B2 B2 B2 B2 B2 B2 B2 B2 B2 B2 B2 B2 B2 B2 B2 B2 B2 GA

>  <atom.prop.environment>  (32) 
16 16 16 16 16 16 16 16 16 16 16 16 16 16 16 16 16 na

$$$$
6ed6_chainB
     RDKit          2D

 10 11  0  0  0  0  0  0  0  0999 V2000
    2.5981   -0.7500    0.0000 C   0  0  0  0  0  0  0  0  0  0  0  0
    1.2990   -1.5000    0.0000 C   0  0  0  0  0  0  0  0  0  0  0  0
    0.0000   -0.7500    0.0000 C   0  0  0  0  0  0  0  0  0  0  0  0
   -0.0000    0.7500    0.0000 C   0  0  0  0  0  0  0  0  0  0  0  0
   -2.5981    0.7500    0.0000 C   0  0  0  0  0  0  0  0  0  0  0  0
    1.2990    1.5000    0.0000 C   0  0  0  0  0  0  0  0  0  0  0  0
   -1.2990    1.5000    0.0000 O   0  0  0  0  0  0  0  0  0  0  0  0
   -2.5981   -0.7500    0.0000 C   0  0  0  0  0  0  0  0  0  0  0  0
   -1.2990   -1.5000    0.0000 O   0  0  0  0  0  0  0  0  0  0  0  0
    2.5981    0.7500    0.0000 C   0  0  0  0  0  0  0  0  0  0  0  0
  1  2  2  0
  1 10  1  0
  2  3  1  0
  3  4  2  0
  3  9  1  0
  4  6  1  0
  4  7  1  0
  5  7  1  0
  5  8  1  0
  6 10  2  0
  8  9  1  0
M  END
>  <kinase>  (33) 
ROCK2

>  <family>  (33) 
DMPK

>  <group>  (33) 
AGC

>  <complex_pdb>  (33) 
6ed6

>  <ligand_pdb>  (33) 
J0P

>  <alt>  (33) 
 

>  <chain>  (33) 
B

>  <atom.prop.subpocket>  (33) 
B2 B2 B2 B2 B2 B2 B2 B2 B2 B2 B2 B2 B2 B2 B2 B2 B2 GA

>  <atom.prop.environment>  (33) 
16 16 16 16 16 16 16 16 16 16 16 16 16 16 16 16 16 na

$$$$
3tuc_chainA
     RDKit          2D

  8  8  0  0  0  0  0  0  0  0999 V2000
   -0.6495   -0.7500    0.0000 N   0  0  0  0  0  0  0  0  0  0  0  0
   -0.6495    0.7500    0.0000 C   0  0  0  0  0  0  0  0  0  0  0  0
   -1.9486   -1.5000    0.0000 C   0  0  0  0  0  0  0  0  0  0  0  0
    0.6495   -1.5000    0.0000 C   0  0  0  0  0  0  0  0  0  0  0  0
    0.6495    1.5000    0.0000 C   0  0  0  0  0  0  0  0  0  0  0  0
   -1.9486    1.5000    0.0000 O   0  0  0  0  0  0  0  0  0  0  0  0
    1.9486   -0.7500    0.0000 C   0  0  0  0  0  0  0  0  0  0  0  0
    1.9486    0.7500    0.0000 C   0  0  0  0  0  0  0  0  0  0  0  0
  1  2  1  0
  1  3  1  0
  1  4  1  0
  2  5  1  0
  2  6  2  0
  4  7  2  0
  5  8  2  0
  7  8  1  0
M  END
>  <kinase>  (34) 
SYK

>  <family>  (34) 
Syk

>  <group>  (34) 
TK

>  <complex_pdb>  (34) 
3tuc

>  <ligand_pdb>  (34) 
FPW

>  <alt>  (34) 
 

>  <chain>  (34) 
A

>  <atom.prop.subpocket>  (34) 
B2 B2 B2 B2 B2 B2 B2 B2 B2 B2 B2 B2 B2 GA B1

>  <atom.prop.environment>  (34) 
9 9 8 8 8 9 9 9 9 9 9 9 9 na na

$$$$
5n9s_chainA
     RDKit          2D

 11 11  0  0  0  0  0  0  0  0999 V2000
    4.1509   -0.2860    0.0000 F   0  0  0  0  0  0  0  0  0  0  0  0
    2.6580   -0.1404    0.0000 C   0  0  0  0  0  0  0  0  0  0  0  0
    1.7855   -1.3606    0.0000 C   0  0  0  0  0  0  0  0  0  0  0  0
    0.2926   -1.2151    0.0000 C   0  0  0  0  0  0  0  0  0  0  0  0
    2.0376    1.2252    0.0000 C   0  0  0  0  0  0  0  0  0  0  0  0
    0.5446    1.3708    0.0000 C   0  0  0  0  0  0  0  0  0  0  0  0
   -0.3278    0.1506    0.0000 C   0  0  0  0  0  0  0  0  0  0  0  0
   -1.8208    0.2961    0.0000 C   0  0  0  0  0  0  0  0  0  0  0  0
   -2.4412    1.6618    0.0000 C   0  0  0  0  0  0  0  0  0  0  0  0
   -2.6933   -0.9240    0.0000 C   0  0  0  0  0  0  0  0  0  0  0  0
   -4.1862   -0.7785    0.0000 O   0  0  0  0  0  0  0  0  0  0  0  0
  1  2  1  0
  2  3  2  0
  2  5  1  0
  3  4  1  0
  4  7  2  0
  5  6  2  0
  6  7  1  0
  7  8  1  0
  8  9  1  6
  8 10  1  0
 10 11  2  0
M  END
>  <kinase>  (35) 
TTK

>  <family>  (35) 
TTK

>  <group>  (35) 
Other

>  <complex_pdb>  (35) 
5n9s

>  <ligand_pdb>  (35) 
8QW

>  <alt>  (35) 
 

>  <chain>  (35) 
A

>  <atom.prop.subpocket>  (35) 
B2 B2 B2 B2 B2 B2 B2 B2 B2 B2 B2 B2 B2 B2 B2 B2 B2 B2 B2 GA

>  <atom.prop.environment>  (35) 
16 16 16 16 16 16 16 16 16 16 16 8 8 8 8 8 8 8 8 na

$$$$
3nyx_altA_chainA
     RDKit          2D

  5  5  0  0  0  0  0  0  0  0999 V2000
    1.2760   -0.0000    0.0000 S   0  0  0  0  0  0  0  0  0  0  0  0
    0.3943    1.2135    0.0000 C   0  0  0  0  0  0  0  0  0  0  0  0
   -1.0323    0.7500    0.0000 C   0  0  0  0  0  0  0  0  0  0  0  0
   -1.0323   -0.7500    0.0000 C   0  0  0  0  0  0  0  0  0  0  0  0
    0.3943   -1.2135    0.0000 C   0  0  0  0  0  0  0  0  0  0  0  0
  1  2  1  0
  1  5  1  0
  2  3  2  0
  3  4  1  0
  4  5  2  0
M  END
>  <kinase>  (36) 
TYK2

>  <family>  (36) 
JakA

>  <group>  (36) 
TK

>  <complex_pdb>  (36) 
3nyx

>  <ligand_pdb>  (36) 
TZ1

>  <alt>  (36) 
A

>  <chain>  (36) 
A

>  <atom.prop.subpocket>  (36) 
B2 B2 B2 B2 B2 B2 B2 B2 GA

>  <atom.prop.environment>  (36) 
14 14 14 14 14 14 14 14 na

$$$$
1a9u_chainA
     RDKit          2D

  9  9  0  0  0  0  0  0  0  0999 V2000
   -2.5833   -1.2990    0.0000 O   0  0  0  0  0  0  0  0  0  0  0  0
   -2.5833    1.2990    0.0000 C   0  0  0  0  0  0  0  0  0  0  0  0
   -1.8333   -0.0000    0.0000 S   0  0  0  0  0  0  0  0  0  0  0  0
    1.9167   -1.2990    0.0000 C   0  0  0  0  0  0  0  0  0  0  0  0
    0.4167   -1.2990    0.0000 C   0  0  0  0  0  0  0  0  0  0  0  0
   -0.3333    0.0000    0.0000 C   0  0  0  0  0  0  0  0  0  0  0  0
    0.4167    1.2990    0.0000 C   0  0  0  0  0  0  0  0  0  0  0  0
    1.9167    1.2990    0.0000 C   0  0  0  0  0  0  0  0  0  0  0  0
    2.6667    0.0000    0.0000 C   0  0  0  0  0  0  0  0  0  0  0  0
  1  3  2  0
  3  2  1  1
  3  6  1  0
  4  5  2  0
  4  9  1  0
  5  6  1  0
  6  7  2  0
  7  8  1  0
  8  9  2  0
M  END
>  <kinase>  (37) 
p38a

>  <family>  (37) 
MAPK

>  <group>  (37) 
CMGC

>  <complex_pdb>  (37) 
1a9u

>  <ligand_pdb>  (37) 
SB2

>  <alt>  (37) 
 

>  <chain>  (37) 
A

>  <atom.prop.subpocket>  (37) 
B2 B2 B2 B2 B2 B2 B2 B2 B2 B2 B2 B2 B2 B2 B2 B2 GA

>  <atom.prop.environment>  (37) 
16 16 16 16 16 16 16 16 16 16 16 16 16 16 16 16 na

$$$$
2rg5_chainA
     RDKit          2D

  5  4  0  0  0  0  0  0  0  0999 V2000
    1.2990    0.4500    0.0000 C   0  0  0  0  0  0  0  0  0  0  0  0
   -2.5981   -0.3000    0.0000 C   0  0  0  0  0  0  0  0  0  0  0  0
    0.0000   -0.3000    0.0000 N   0  0  0  0  0  0  0  0  0  0  0  0
    2.5981   -0.3000    0.0000 O   0  0  0  0  0  0  0  0  0  0  0  0
   -1.2990    0.4500    0.0000 O   0  0  0  0  0  0  0  0  0  0  0  0
  1  3  1  0
  1  4  2  0
  2  5  1  0
  3  5  1  0
M  END
>  <kinase>  (38) 
p38a

>  <family>  (38) 
MAPK

>  <group>  (38) 
CMGC

>  <complex_pdb>  (38) 
2rg5

>  <ligand_pdb>  (38) 
279

>  <alt>  (38) 
 

>  <chain>  (38) 
A

>  <atom.prop.subpocket>  (38) 
B2 B2 B2 B2 B2 B2 B2 B2 B2 GA

>  <atom.prop.environment>  (38) 
6 6 6 6 6 6 6 6 6 na

$$$$
2rg6_chainA
     RDKit          2D

  5  4  0  0  0  0  0  0  0  0999 V2000
    1.2990    0.4500    0.0000 C   0  0  0  0  0  0  0  0  0  0  0  0
   -2.5981   -0.3000    0.0000 C   0  0  0  0  0  0  0  0  0  0  0  0
    0.0000   -0.3000    0.0000 N   0  0  0  0  0  0  0  0  0  0  0  0
    2.5981   -0.3000    0.0000 O   0  0  0  0  0  0  0  0  0  0  0  0
   -1.2990    0.4500    0.0000 O   0  0  0  0  0  0  0  0  0  0  0  0
  1  3  1  0
  1  4  2  0
  2  5  1  0
  3  5  1  0
M  END
>  <kinase>  (39) 
p38a

>  <family>  (39) 
MAPK

>  <group>  (39) 
CMGC

>  <complex_pdb>  (39) 
2rg6

>  <ligand_pdb>  (39) 
287

>  <alt>  (39) 
 

>  <chain>  (39) 
A

>  <atom.prop.subpocket>  (39) 
B2 B2 B2 B2 B2 B2 B2 B2 B2 GA

>  <atom.prop.environment>  (39) 
6 6 6 6 6 6 6 6 6 na

$$$$
2yix_chainA
     RDKit          2D

  3  2  0  0  0  0  0  0  0  0999 V2000
   -1.2990   -0.2500    0.0000 C   0  0  0  0  0  0  0  0  0  0  0  0
    0.0000    0.5000    0.0000 C   0  0  0  0  0  0  0  0  0  0  0  0
    1.2990   -0.2500    0.0000 N   0  0  0  0  0  0  0  0  0  0  0  0
  1  2  1  0
  2  3  1  0
M  END
>  <kinase>  (40) 
p38a

>  <family>  (40) 
MAPK

>  <group>  (40) 
CMGC

>  <complex_pdb>  (40) 
2yix

>  <ligand_pdb>  (40) 
YIX

>  <alt>  (40) 
 

>  <chain>  (40) 
A

>  <atom.prop.subpocket>  (40) 
B2 B2 B2 B2 B2 B2 B2 B2 B2 GA

>  <atom.prop.environment>  (40) 
4 4 4 4 4 4 4 5 5 na

$$$$
2zb0_altA_chainA
     RDKit          2D

  6  6  0  0  0  0  0  0  0  0999 V2000
   -1.4949   -0.7500    0.0000 C   0  0  0  0  0  0  0  0  0  0  0  0
   -0.0684   -1.2135    0.0000 O   0  0  0  0  0  0  0  0  0  0  0  0
    0.8133   -0.0000    0.0000 C   0  0  0  0  0  0  0  0  0  0  0  0
    2.3133   -0.0000    0.0000 C   0  0  0  0  0  0  0  0  0  0  0  0
   -0.0684    1.2135    0.0000 N   0  0  0  0  0  0  0  0  0  0  0  0
   -1.4949    0.7500    0.0000 N   0  0  0  0  0  0  0  0  0  0  0  0
  1  2  1  0
  1  6  2  0
  2  3  1  0
  3  4  1  0
  3  5  2  0
  5  6  1  0
M  END
>  <kinase>  (41) 
p38a

>  <family>  (41) 
MAPK

>  <group>  (41) 
CMGC

>  <complex_pdb>  (41) 
2zb0

>  <ligand_pdb>  (41) 
GK3

>  <alt>  (41) 
A

>  <chain>  (41) 
A

>  <atom.prop.subpocket>  (41) 
B2 B2 B2 B2 B2 B2 B2 B2 B2 GA

>  <atom.prop.environment>  (41) 
14 14 14 8 8 8 8 14 14 na

$$$$
3bv2_chainA
     RDKit          2D

  8  8  0  0  0  0  0  0  0  0999 V2000
    0.4129   -1.4050    0.0000 C   0  0  0  0  0  0  0  0  0  0  0  0
   -0.6045   -0.3028    0.0000 C   0  0  0  0  0  0  0  0  0  0  0  0
   -2.0677   -0.6327    0.0000 C   0  0  0  0  0  0  0  0  0  0  0  0
   -3.0851    0.4695    0.0000 O   0  0  0  0  0  0  0  0  0  0  0  0
    1.8762   -1.0750    0.0000 C   0  0  0  0  0  0  0  0  0  0  0  0
    2.3221    0.3572    0.0000 N   0  0  0  0  0  0  0  0  0  0  0  0
    1.3047    1.4594    0.0000 C   0  0  0  0  0  0  0  0  0  0  0  0
   -0.1586    1.1294    0.0000 C   0  0  0  0  0  0  0  0  0  0  0  0
  1  2  2  0
  1  5  1  0
  2  3  1  0
  2  8  1  0
  3  4  2  0
  5  6  2  0
  6  7  1  0
  7  8  2  0
M  END
>  <kinase>  (42) 
p38a

>  <family>  (42) 
MAPK

>  <group>  (42) 
CMGC

>  <complex_pdb>  (42) 
3bv2

>  <ligand_pdb>  (42) 
P38

>  <alt>  (42) 
 

>  <chain>  (42) 
A

>  <atom.prop.subpocket>  (42) 
B2 B2 B2 B2 B2 B2 B2 B2 B2 B2 B2 GA X-B1

>  <atom.prop.environment>  (42) 
16 16 16 6 6 16 16 16 16 16 16 na na

$$$$
3bv3_chainA
     RDKit          2D

  6  6  0  0  0  0  0  0  0  0999 V2000
    1.5000    0.0000    0.0000 C   0  0  0  0  0  0  0  0  0  0  0  0
    0.7500   -1.2990    0.0000 C   0  0  0  0  0  0  0  0  0  0  0  0
    0.7500    1.2990    0.0000 C   0  0  0  0  0  0  0  0  0  0  0  0
   -0.7500    1.2990    0.0000 C   0  0  0  0  0  0  0  0  0  0  0  0
   -1.5000    0.0000    0.0000 C   0  0  0  0  0  0  0  0  0  0  0  0
   -0.7500   -1.2990    0.0000 C   0  0  0  0  0  0  0  0  0  0  0  0
  1  2  2  0
  1  3  1  0
  2  6  1  0
  3  4  2  0
  4  5  1  0
  5  6  2  0
M  END
>  <kinase>  (43) 
p38a

>  <family>  (43) 
MAPK

>  <group>  (43) 
CMGC

>  <complex_pdb>  (43) 
3bv3

>  <ligand_pdb>  (43) 
P39

>  <alt>  (43) 
 

>  <chain>  (43) 
A

>  <atom.prop.subpocket>  (43) 
B2 B2 B2 B2 B2 B2 B2 B2 B2 B2 X-B1 B1

>  <atom.prop.environment>  (43) 
16 16 16 16 16 16 16 16 16 16 na na

$$$$
3gfe_chainA
     RDKit          2D

  4  4  0  0  0  0  0  0  0  0999 V2000
   -1.7745   -0.0000    0.0000 N   0  0  0  0  0  0  0  0  0  0  0  0
    1.0245   -0.7500    0.0000 C   0  0  0  0  0  0  0  0  0  0  0  0
    1.0245    0.7500    0.0000 C   0  0  0  0  0  0  0  0  0  0  0  0
   -0.2745    0.0000    0.0000 C   0  0  0  0  0  0  0  0  0  0  0  0
  1  4  1  0
  2  3  1  0
  2  4  1  0
  3  4  1  0
M  END
>  <kinase>  (44) 
p38a

>  <family>  (44) 
MAPK

>  <group>  (44) 
CMGC

>  <complex_pdb>  (44) 
3gfe

>  <ligand_pdb>  (44) 
P37

>  <alt>  (44) 
 

>  <chain>  (44) 
A

>  <atom.prop.subpocket>  (44) 
B2 B2 B2 B2 B2 B2 B2 B2 B2 B2 GA

>  <atom.prop.environment>  (44) 
5 5 15 15 15 15 15 15 15 15 na

$$$$
3iph_altA_chainA
     RDKit          2D

  4  4  0  0  0  0  0  0  0  0999 V2000
    1.7745    0.0000    0.0000 N   0  0  0  0  0  0  0  0  0  0  0  0
    0.2745   -0.0000    0.0000 C   0  0  0  0  0  0  0  0  0  0  0  0
   -1.0245    0.7500    0.0000 C   0  0  0  0  0  0  0  0  0  0  0  0
   -1.0245   -0.7500    0.0000 C   0  0  0  0  0  0  0  0  0  0  0  0
  1  2  1  0
  2  3  1  0
  2  4  1  0
  3  4  1  0
M  END
>  <kinase>  (45) 
p38a

>  <family>  (45) 
MAPK

>  <group>  (45) 
CMGC

>  <complex_pdb>  (45) 
3iph

>  <ligand_pdb>  (45) 
G11

>  <alt>  (45) 
A

>  <chain>  (45) 
A

>  <atom.prop.subpocket>  (45) 
B2 B2 B2 B2 B2 B2 B2 B2 B2 B2 GA

>  <atom.prop.environment>  (45) 
5 5 15 15 15 15 15 15 15 15 na

$$$$
3mvl_chainA
     RDKit          2D

  4  4  0  0  0  0  0  0  0  0999 V2000
    1.7745    0.0000    0.0000 N   0  0  0  0  0  0  0  0  0  0  0  0
    0.2745   -0.0000    0.0000 C   0  0  0  0  0  0  0  0  0  0  0  0
   -1.0245    0.7500    0.0000 C   0  0  0  0  0  0  0  0  0  0  0  0
   -1.0245   -0.7500    0.0000 C   0  0  0  0  0  0  0  0  0  0  0  0
  1  2  1  0
  2  3  1  0
  2  4  1  0
  3  4  1  0
M  END
>  <kinase>  (46) 
p38a

>  <family>  (46) 
MAPK

>  <group>  (46) 
CMGC

>  <complex_pdb>  (46) 
3mvl

>  <ligand_pdb>  (46) 
38P

>  <alt>  (46) 
 

>  <chain>  (46) 
A

>  <atom.prop.subpocket>  (46) 
B2 B2 B2 B2 B2 B2 B2 B2 B2 B2 GA

>  <atom.prop.environment>  (46) 
5 5 15 15 15 15 15 15 15 15 na

$$$$
3ocg_chainA
     RDKit          2D

  5  5  0  0  0  0  0  0  0  0999 V2000
    1.2760   -0.0000    0.0000 C   0  0  0  0  0  0  0  0  0  0  0  0
    0.3943    1.2135    0.0000 N   0  0  0  0  0  0  0  0  0  0  0  0
   -1.0323    0.7500    0.0000 O   0  0  0  0  0  0  0  0  0  0  0  0
   -1.0323   -0.7500    0.0000 C   0  0  0  0  0  0  0  0  0  0  0  0
    0.3943   -1.2135    0.0000 C   0  0  0  0  0  0  0  0  0  0  0  0
  1  2  2  0
  1  5  1  0
  2  3  1  0
  3  4  1  0
  4  5  2  0
M  END
>  <kinase>  (47) 
p38a

>  <family>  (47) 
MAPK

>  <group>  (47) 
CMGC

>  <complex_pdb>  (47) 
3ocg

>  <ligand_pdb>  (47) 
OCG

>  <alt>  (47) 
 

>  <chain>  (47) 
A

>  <atom.prop.subpocket>  (47) 
B2 B2 B2 B2 B2 B2 B2 GA

>  <atom.prop.environment>  (47) 
14 14 14 14 14 14 14 na

$$$$
3rin_chainA
     RDKit          2D

  4  4  0  0  0  0  0  0  0  0999 V2000
    1.7745    0.0000    0.0000 N   0  0  0  0  0  0  0  0  0  0  0  0
    0.2745   -0.0000    0.0000 C   0  0  0  0  0  0  0  0  0  0  0  0
   -1.0245    0.7500    0.0000 C   0  0  0  0  0  0  0  0  0  0  0  0
   -1.0245   -0.7500    0.0000 C   0  0  0  0  0  0  0  0  0  0  0  0
  1  2  1  0
  2  3  1  0
  2  4  1  0
  3  4  1  0
M  END
>  <kinase>  (48) 
p38a

>  <family>  (48) 
MAPK

>  <group>  (48) 
CMGC

>  <complex_pdb>  (48) 
3rin

>  <ligand_pdb>  (48) 
I2O

>  <alt>  (48) 
 

>  <chain>  (48) 
A

>  <atom.prop.subpocket>  (48) 
B2 B2 B2 B2 B2 B2 B2 B2 B2 B2 GA

>  <atom.prop.environment>  (48) 
5 5 15 15 15 15 15 15 15 15 na

$$$$
3s3i_chainA
     RDKit          2D

  4  4  0  0  0  0  0  0  0  0999 V2000
    1.7745    0.0000    0.0000 N   0  0  0  0  0  0  0  0  0  0  0  0
    0.2745   -0.0000    0.0000 C   0  0  0  0  0  0  0  0  0  0  0  0
   -1.0245    0.7500    0.0000 C   0  0  0  0  0  0  0  0  0  0  0  0
   -1.0245   -0.7500    0.0000 C   0  0  0  0  0  0  0  0  0  0  0  0
  1  2  1  0
  2  3  1  0
  2  4  1  0
  3  4  1  0
M  END
>  <kinase>  (49) 
p38a

>  <family>  (49) 
MAPK

>  <group>  (49) 
CMGC

>  <complex_pdb>  (49) 
3s3i

>  <ligand_pdb>  (49) 
CQ0

>  <alt>  (49) 
 

>  <chain>  (49) 
A

>  <atom.prop.subpocket>  (49) 
B2 B2 B2 B2 B2 B2 B2 B2 B2 B2 GA

>  <atom.prop.environment>  (49) 
5 5 15 15 15 15 15 15 15 15 na

$$$$
3s4q_chainA
     RDKit          2D

  4  4  0  0  0  0  0  0  0  0999 V2000
    1.7745    0.0000    0.0000 N   0  0  0  0  0  0  0  0  0  0  0  0
    0.2745   -0.0000    0.0000 C   0  0  0  0  0  0  0  0  0  0  0  0
   -1.0245    0.7500    0.0000 C   0  0  0  0  0  0  0  0  0  0  0  0
   -1.0245   -0.7500    0.0000 C   0  0  0  0  0  0  0  0  0  0  0  0
  1  2  1  0
  2  3  1  0
  2  4  1  0
  3  4  1  0
M  END
>  <kinase>  (50) 
p38a

>  <family>  (50) 
MAPK

>  <group>  (50) 
CMGC

>  <complex_pdb>  (50) 
3s4q

>  <ligand_pdb>  (50) 
NK0

>  <alt>  (50) 
 

>  <chain>  (50) 
A

>  <atom.prop.subpocket>  (50) 
B2 B2 B2 B2 B2 B2 B2 B2 B2 B2 GA

>  <atom.prop.environment>  (50) 
5 5 15 15 15 15 15 15 15 15 na

$$$$
3uvp_altA_chainA
     RDKit          2D

  6  6  0  0  0  0  0  0  0  0999 V2000
    1.5000    0.0000    0.0000 C   0  0  0  0  0  0  0  0  0  0  0  0
    0.7500   -1.2990    0.0000 C   0  0  0  0  0  0  0  0  0  0  0  0
    0.7500    1.2990    0.0000 C   0  0  0  0  0  0  0  0  0  0  0  0
   -0.7500   -1.2990    0.0000 C   0  0  0  0  0  0  0  0  0  0  0  0
   -0.7500    1.2990    0.0000 C   0  0  0  0  0  0  0  0  0  0  0  0
   -1.5000    0.0000    0.0000 C   0  0  0  0  0  0  0  0  0  0  0  0
  1  2  2  0
  1  3  1  0
  2  4  1  0
  3  5  2  0
  4  6  2  0
  5  6  1  0
M  END
>  <kinase>  (51) 
p38a

>  <family>  (51) 
MAPK

>  <group>  (51) 
CMGC

>  <complex_pdb>  (51) 
3uvp

>  <ligand_pdb>  (51) 
048

>  <alt>  (51) 
A

>  <chain>  (51) 
A

>  <atom.prop.subpocket>  (51) 
B2 B2 B2 B2 B2 B2 B2 B2 B2 B2 B2 GA

>  <atom.prop.environment>  (51) 
16 16 16 16 16 16 16 16 16 16 16 na

$$$$
3uvq_altA_chainA
     RDKit          2D

  6  6  0  0  0  0  0  0  0  0999 V2000
    1.5000    0.0000    0.0000 C   0  0  0  0  0  0  0  0  0  0  0  0
    0.7500   -1.2990    0.0000 C   0  0  0  0  0  0  0  0  0  0  0  0
    0.7500    1.2990    0.0000 C   0  0  0  0  0  0  0  0  0  0  0  0
   -0.7500   -1.2990    0.0000 C   0  0  0  0  0  0  0  0  0  0  0  0
   -0.7500    1.2990    0.0000 C   0  0  0  0  0  0  0  0  0  0  0  0
   -1.5000    0.0000    0.0000 C   0  0  0  0  0  0  0  0  0  0  0  0
  1  2  2  0
  1  3  1  0
  2  4  1  0
  3  5  2  0
  4  6  2  0
  5  6  1  0
M  END
>  <kinase>  (52) 
p38a

>  <family>  (52) 
MAPK

>  <group>  (52) 
CMGC

>  <complex_pdb>  (52) 
3uvq

>  <ligand_pdb>  (52) 
FS8

>  <alt>  (52) 
A

>  <chain>  (52) 
A

>  <atom.prop.subpocket>  (52) 
B2 B2 B2 B2 B2 B2 B2 B2 B2 B2 B2 GA

>  <atom.prop.environment>  (52) 
16 16 16 16 16 16 16 16 16 16 16 na

$$$$
4aa4_chainA
     RDKit          2D

  5  5  0  0  0  0  0  0  0  0999 V2000
    1.2760   -0.0000    0.0000 C   0  0  0  0  0  0  0  0  0  0  0  0
    0.3943    1.2135    0.0000 C   0  0  0  0  0  0  0  0  0  0  0  0
   -1.0323    0.7500    0.0000 C   0  0  0  0  0  0  0  0  0  0  0  0
   -1.0323   -0.7500    0.0000 O   0  0  0  0  0  0  0  0  0  0  0  0
    0.3943   -1.2135    0.0000 C   0  0  0  0  0  0  0  0  0  0  0  0
  1  2  1  0
  1  5  2  0
  2  3  2  0
  3  4  1  0
  4  5  1  0
M  END
>  <kinase>  (53) 
p38a

>  <family>  (53) 
MAPK

>  <group>  (53) 
CMGC

>  <complex_pdb>  (53) 
4aa4

>  <ligand_pdb>  (53) 
QC0

>  <alt>  (53) 
 

>  <chain>  (53) 
A

>  <atom.prop.subpocket>  (53) 
B2 B2 B2 B2 B2 B2 B2 B2 GA

>  <atom.prop.environment>  (53) 
16 16 16 16 16 16 16 16 na

$$$$
4kin_chainB
     RDKit          2D

  4  4  0  0  0  0  0  0  0  0999 V2000
    1.7745    0.0000    0.0000 N   0  0  0  0  0  0  0  0  0  0  0  0
    0.2745   -0.0000    0.0000 C   0  0  0  0  0  0  0  0  0  0  0  0
   -1.0245    0.7500    0.0000 C   0  0  0  0  0  0  0  0  0  0  0  0
   -1.0245   -0.7500    0.0000 C   0  0  0  0  0  0  0  0  0  0  0  0
  1  2  1  0
  2  3  1  0
  2  4  1  0
  3  4  1  0
M  END
>  <kinase>  (54) 
p38a

>  <family>  (54) 
MAPK

>  <group>  (54) 
CMGC

>  <complex_pdb>  (54) 
4kin

>  <ligand_pdb>  (54) 
1M8

>  <alt>  (54) 
 

>  <chain>  (54) 
B

>  <atom.prop.subpocket>  (54) 
B2 B2 B2 B2 B2 B2 B2 B2 B2 B2 GA

>  <atom.prop.environment>  (54) 
5 5 15 15 15 15 15 15 15 15 na

$$$$
4kip_chainA
     RDKit          2D

  4  4  0  0  0  0  0  0  0  0999 V2000
    1.7745    0.0000    0.0000 N   0  0  0  0  0  0  0  0  0  0  0  0
    0.2745   -0.0000    0.0000 C   0  0  0  0  0  0  0  0  0  0  0  0
   -1.0245    0.7500    0.0000 C   0  0  0  0  0  0  0  0  0  0  0  0
   -1.0245   -0.7500    0.0000 C   0  0  0  0  0  0  0  0  0  0  0  0
  1  2  1  0
  2  3  1  0
  2  4  1  0
  3  4  1  0
M  END
>  <kinase>  (55) 
p38a

>  <family>  (55) 
MAPK

>  <group>  (55) 
CMGC

>  <complex_pdb>  (55) 
4kip

>  <ligand_pdb>  (55) 
1R9

>  <alt>  (55) 
 

>  <chain>  (55) 
A

>  <atom.prop.subpocket>  (55) 
B2 B2 B2 B2 B2 B2 B2 B2 B2 B2 GA

>  <atom.prop.environment>  (55) 
5 5 15 15 15 15 15 15 15 15 na

$$$$
4kiq_chainB
     RDKit          2D

  4  4  0  0  0  0  0  0  0  0999 V2000
    1.7745    0.0000    0.0000 N   0  0  0  0  0  0  0  0  0  0  0  0
    0.2745   -0.0000    0.0000 C   0  0  0  0  0  0  0  0  0  0  0  0
   -1.0245    0.7500    0.0000 C   0  0  0  0  0  0  0  0  0  0  0  0
   -1.0245   -0.7500    0.0000 C   0  0  0  0  0  0  0  0  0  0  0  0
  1  2  1  0
  2  3  1  0
  2  4  1  0
  3  4  1  0
M  END
>  <kinase>  (56) 
p38a

>  <family>  (56) 
MAPK

>  <group>  (56) 
CMGC

>  <complex_pdb>  (56) 
4kiq

>  <ligand_pdb>  (56) 
1RA

>  <alt>  (56) 
 

>  <chain>  (56) 
B

>  <atom.prop.subpocket>  (56) 
B2 B2 B2 B2 B2 B2 B2 B2 B2 B2 GA

>  <atom.prop.environment>  (56) 
5 5 15 15 15 15 15 15 15 15 na

$$$$
5mtx_altB_chainA
     RDKit          2D

  6  6  0  0  0  0  0  0  0  0999 V2000
    1.5000    0.0000    0.0000 C   0  0  0  0  0  0  0  0  0  0  0  0
    0.7500   -1.2990    0.0000 C   0  0  0  0  0  0  0  0  0  0  0  0
   -0.7500   -1.2990    0.0000 C   0  0  0  0  0  0  0  0  0  0  0  0
   -1.5000    0.0000    0.0000 C   0  0  0  0  0  0  0  0  0  0  0  0
   -0.7500    1.2990    0.0000 C   0  0  0  0  0  0  0  0  0  0  0  0
    0.7500    1.2990    0.0000 C   0  0  0  0  0  0  0  0  0  0  0  0
  1  2  2  0
  1  6  1  0
  2  3  1  0
  3  4  2  0
  4  5  1  0
  5  6  2  0
M  END
>  <kinase>  (57) 
p38a

>  <family>  (57) 
MAPK

>  <group>  (57) 
CMGC

>  <complex_pdb>  (57) 
5mtx

>  <ligand_pdb>  (57) 
FJI

>  <alt>  (57) 
B

>  <chain>  (57) 
A

>  <atom.prop.subpocket>  (57) 
B2 B2 B2 B2 B2 B2 B2 B2 B2 B2 B2 GA

>  <atom.prop.environment>  (57) 
16 16 16 16 16 16 16 16 16 16 16 na

$$$$
5mty_chainA
     RDKit          2D

  5  5  0  0  0  0  0  0  0  0999 V2000
    1.2760   -0.0000    0.0000 C   0  0  0  0  0  0  0  0  0  0  0  0
    0.3943    1.2135    0.0000 C   0  0  0  0  0  0  0  0  0  0  0  0
   -1.0323    0.7500    0.0000 C   0  0  0  0  0  0  0  0  0  0  0  0
   -1.0323   -0.7500    0.0000 S   0  0  0  0  0  0  0  0  0  0  0  0
    0.3943   -1.2135    0.0000 C   0  0  0  0  0  0  0  0  0  0  0  0
  1  2  1  0
  1  5  2  0
  2  3  2  0
  3  4  1  0
  4  5  1  0
M  END
>  <kinase>  (58) 
p38a

>  <family>  (58) 
MAPK

>  <group>  (58) 
CMGC

>  <complex_pdb>  (58) 
5mty

>  <ligand_pdb>  (58) 
HB9

>  <alt>  (58) 
 

>  <chain>  (58) 
A

>  <atom.prop.subpocket>  (58) 
B2 B2 B2 B2 B2 B2 B2 B2 GA

>  <atom.prop.environment>  (58) 
14 14 14 14 14 14 14 14 na

$$$$
5tbe_chainA
     RDKit          2D

  5  5  0  0  0  0  0  0  0  0999 V2000
    1.2760   -0.0000    0.0000 C   0  0  0  0  0  0  0  0  0  0  0  0
    0.3943    1.2135    0.0000 S   0  0  0  0  0  0  0  0  0  0  0  0
   -1.0323    0.7500    0.0000 C   0  0  0  0  0  0  0  0  0  0  0  0
   -1.0323   -0.7500    0.0000 C   0  0  0  0  0  0  0  0  0  0  0  0
    0.3943   -1.2135    0.0000 C   0  0  0  0  0  0  0  0  0  0  0  0
  1  2  1  0
  1  5  2  0
  2  3  1  0
  3  4  2  0
  4  5  1  0
M  END
>  <kinase>  (59) 
p38a

>  <family>  (59) 
MAPK

>  <group>  (59) 
CMGC

>  <complex_pdb>  (59) 
5tbe

>  <ligand_pdb>  (59) 
78L

>  <alt>  (59) 
 

>  <chain>  (59) 
A

>  <atom.prop.subpocket>  (59) 
B2 B2 B2 B2 B2 B2 B2 B2 GA

>  <atom.prop.environment>  (59) 
14 14 14 14 14 14 14 14 na

$$$$
5tco_chainA
     RDKit          2D

  6  6  0  0  0  0  0  0  0  0999 V2000
    1.5000    0.0000    0.0000 C   0  0  0  0  0  0  0  0  0  0  0  0
    0.7500   -1.2990    0.0000 C   0  0  0  0  0  0  0  0  0  0  0  0
   -0.7500   -1.2990    0.0000 C   0  0  0  0  0  0  0  0  0  0  0  0
   -1.5000    0.0000    0.0000 C   0  0  0  0  0  0  0  0  0  0  0  0
   -0.7500    1.2990    0.0000 C   0  0  0  0  0  0  0  0  0  0  0  0
    0.7500    1.2990    0.0000 C   0  0  0  0  0  0  0  0  0  0  0  0
  1  2  2  0
  1  6  1  0
  2  3  1  0
  3  4  2  0
  4  5  1  0
  5  6  2  0
M  END
>  <kinase>  (60) 
p38a

>  <family>  (60) 
MAPK

>  <group>  (60) 
CMGC

>  <complex_pdb>  (60) 
5tco

>  <ligand_pdb>  (60) 
79Q

>  <alt>  (60) 
 

>  <chain>  (60) 
A

>  <atom.prop.subpocket>  (60) 
B2 B2 B2 B2 B2 B2 B2 B2 B2 B2 B2 GA

>  <atom.prop.environment>  (60) 
16 16 16 16 16 16 16 16 16 16 16 na

$$$$
4eym_chainA
     RDKit          2D

 12 13  0  0  0  0  0  0  0  0999 V2000
    3.0000   -1.2990    0.0000 C   0  0  0  0  0  0  0  0  0  0  0  0
    1.5000   -1.2990    0.0000 C   0  0  0  0  0  0  0  0  0  0  0  0
    0.7500    0.0000    0.0000 C   0  0  0  0  0  0  0  0  0  0  0  0
   -0.7500    0.0000    0.0000 N   0  0  0  0  0  0  0  0  0  0  0  0
   -1.5000    1.2990    0.0000 C   0  0  0  0  0  0  0  0  0  0  0  0
   -3.0000    1.2990    0.0000 C   0  0  0  0  0  0  0  0  0  0  0  0
   -3.7500    0.0000    0.0000 O   0  0  0  0  0  0  0  0  0  0  0  0
   -3.0000   -1.2990    0.0000 C   0  0  0  0  0  0  0  0  0  0  0  0
   -1.5000   -1.2990    0.0000 C   0  0  0  0  0  0  0  0  0  0  0  0
    1.5000    1.2990    0.0000 N   0  0  0  0  0  0  0  0  0  0  0  0
    3.0000    1.2990    0.0000 C   0  0  0  0  0  0  0  0  0  0  0  0
    3.7500   -0.0000    0.0000 C   0  0  0  0  0  0  0  0  0  0  0  0
  1  2  2  0
  1 12  1  0
  2  3  1  0
  3  4  1  0
  3 10  2  0
  4  5  1  0
  4  9  1  0
  5  6  1  0
  6  7  1  0
  7  8  1  0
  8  9  1  0
 10 11  1  0
 11 12  2  0
M  END
>  <kinase>  (61) 
p38d

>  <family>  (61) 
MAPK

>  <group>  (61) 
CMGC

>  <complex_pdb>  (61) 
4eym

>  <ligand_pdb>  (61) 
0RX

>  <alt>  (61) 
 

>  <chain>  (61) 
A

>  <atom.prop.subpocket>  (61) 
B2 B2 B2 B2 B2 B2 B2 B2 B2 B2 B2 B2 B2 B2 B2 B2 B2 B2 B2 B2 B2 B2 B2 GA

>  <atom.prop.environment>  (61) 
16 16 16 16 5 5 5 5 5 5 5 5 5 5 5 5 5 5 16 16 16 16 16 na

$$$$
5eko_chainA
     RDKit          2D

 12 13  0  0  0  0  0  0  0  0999 V2000
   -3.2045   -1.1165    0.0000 C   0  0  0  0  0  0  0  0  0  0  0  0
   -3.8193    0.2517    0.0000 C   0  0  0  0  0  0  0  0  0  0  0  0
   -2.9417    1.4682    0.0000 C   0  0  0  0  0  0  0  0  0  0  0  0
   -1.4494    1.3165    0.0000 C   0  0  0  0  0  0  0  0  0  0  0  0
   -1.7122   -1.2683    0.0000 C   0  0  0  0  0  0  0  0  0  0  0  0
   -0.8347   -0.0518    0.0000 C   0  0  0  0  0  0  0  0  0  0  0  0
    0.6576   -0.2036    0.0000 N   0  0  0  0  0  0  0  0  0  0  0  0
    1.6576    0.9145    0.0000 C   0  0  0  0  0  0  0  0  0  0  0  0
    1.4120   -1.5001    0.0000 C   0  0  0  0  0  0  0  0  0  0  0  0
    2.8782   -1.1832    0.0000 N   0  0  0  0  0  0  0  0  0  0  0  0
    3.0299    0.3091    0.0000 C   0  0  0  0  0  0  0  0  0  0  0  0
    4.3264    1.0634    0.0000 C   0  0  0  0  0  0  0  0  0  0  0  0
  1  2  2  0
  1  5  1  0
  2  3  1  0
  3  4  2  0
  4  6  1  0
  5  6  2  0
  6  7  1  0
  7  8  1  0
  7  9  1  0
  8 11  2  0
  9 10  2  0
 10 11  1  0
 11 12  1  0
M  END
>  <kinase>  (62) 
p38d

>  <family>  (62) 
MAPK

>  <group>  (62) 
CMGC

>  <complex_pdb>  (62) 
5eko

>  <ligand_pdb>  (62) 
N17

>  <alt>  (62) 
 

>  <chain>  (62) 
A

>  <atom.prop.subpocket>  (62) 
B2 B2 B2 B2 B2 B2 B2 B2 B2 B2 B2 B2 B2 B2 B2 B2 B2 B2 B2 B2 B2 GA

>  <atom.prop.environment>  (62) 
16 16 16 16 16 16 16 16 16 16 9 9 9 9 9 9 9 8 8 8 8 na

$$$$
